Version 4
SHEET 1 1272 680
WIRE -16 48 -144 48
WIRE 144 48 48 48
WIRE 192 48 144 48
WIRE 288 48 256 48
WIRE 448 48 288 48
WIRE 144 96 144 48
WIRE 288 96 288 48
WIRE -144 112 -144 48
WIRE 448 160 448 48
WIRE -144 224 -144 192
WIRE 144 224 144 160
WIRE 736 240 496 240
WIRE 144 336 144 304
WIRE 448 384 448 256
FLAG -144 224 0
FLAG 288 160 0
FLAG 144 336 0
FLAG 448 464 0
FLAG 736 320 0
SYMBOL cap 128 96 R0
SYMATTR InstName C1
SYMATTR Value 1µF
SYMBOL cap 272 96 R0
SYMATTR InstName C2
SYMATTR Value 1µF
SYMBOL diode -16 64 R270
WINDOW 0 32 32 VTop 2
WINDOW 3 0 32 VBottom 2
SYMATTR InstName D1
SYMBOL diode 192 64 R270
WINDOW 0 32 32 VTop 2
WINDOW 3 0 32 VBottom 2
SYMATTR InstName D2
SYMBOL voltage -144 96 R0
WINDOW 123 0 0 Left 0
WINDOW 39 0 0 Left 0
SYMATTR InstName V1
SYMATTR Value 5
SYMBOL voltage 144 208 R0
WINDOW 123 0 0 Left 0
WINDOW 39 0 0 Left 0
SYMATTR InstName V2
SYMATTR Value PULSE(0 5 0 1u 1u 0.000002 0.000002 100)
SYMBOL nmos 496 160 M0
SYMATTR InstName M1
SYMATTR Value IPD600N25N3
SYMBOL res 432 368 R0
SYMATTR InstName R1
SYMATTR Value 1R
SYMBOL voltage 736 224 R0
WINDOW 123 0 0 Left 0
WINDOW 39 0 0 Left 0
SYMATTR InstName V3
SYMATTR Value PULSE(0 5 500u 1u 1u 1 0.000002 1)
TEXT -178 360 Left 2 !.tran 0 0.1 0
