Version 4
SHEET 1 880 680
WIRE -832 -352 -832 -416
WIRE -784 -352 -832 -352
WIRE -672 -352 -720 -352
WIRE -624 -352 -672 -352
WIRE -544 -352 -560 -352
WIRE -432 -352 -544 -352
WIRE -240 -352 -432 -352
WIRE -240 -336 -240 -352
WIRE 0 -336 -240 -336
WIRE -544 -288 -544 -352
WIRE -432 -288 -432 -352
WIRE 0 -288 0 -336
WIRE -832 -224 -1056 -224
WIRE -672 -224 -672 -352
WIRE -672 -224 -768 -224
WIRE -240 -192 -240 -336
WIRE 0 -176 0 -208
WIRE 0 -176 -192 -176
WIRE -544 -160 -544 -224
WIRE -432 -160 -432 -224
WIRE -1056 -144 -1056 -224
WIRE 560 -144 560 -192
WIRE 672 -144 672 -192
WIRE 800 -144 800 -192
WIRE 0 -32 0 -176
WIRE -1056 -16 -1056 -64
WIRE -240 -16 -240 -96
WIRE 560 -16 560 -64
WIRE 672 -16 672 -64
WIRE 672 -16 560 -16
WIRE 800 -16 800 -64
WIRE 800 -16 672 -16
WIRE 672 32 672 -16
WIRE 144 48 48 48
WIRE 320 48 144 48
WIRE 144 80 144 48
WIRE -240 96 -240 64
WIRE 0 96 0 64
WIRE 0 96 -240 96
WIRE 320 112 320 48
WIRE 0 144 0 96
WIRE 144 192 144 160
WIRE 320 224 320 192
FLAG 560 -192 3.3V
FLAG 672 -192 5V
FLAG 800 -192 10V
FLAG 672 32 0
FLAG 0 144 0
FLAG -544 -160 0
FLAG -432 -160 0
FLAG -832 -416 5V
FLAG 144 192 0
FLAG -1056 -16 0
FLAG 320 224 0
SYMBOL voltage 560 -160 R0
WINDOW 123 0 0 Left 0
WINDOW 39 0 0 Left 0
SYMATTR InstName V1
SYMATTR Value 3.3
SYMBOL voltage 672 -160 R0
WINDOW 123 0 0 Left 0
WINDOW 39 0 0 Left 0
SYMATTR InstName V2
SYMATTR Value 5
SYMBOL voltage 800 -160 R0
WINDOW 123 0 0 Left 0
WINDOW 39 0 0 Left 0
SYMATTR InstName V3
SYMATTR Value 10
SYMBOL res -16 -304 R0
SYMATTR InstName R3
SYMATTR Value 1k
SYMBOL diode -784 -336 R270
WINDOW 0 32 32 VTop 2
WINDOW 3 0 32 VBottom 2
SYMATTR InstName D2
SYMBOL diode -624 -336 R270
WINDOW 0 32 32 VTop 2
WINDOW 3 0 32 VBottom 2
SYMATTR InstName D3
SYMBOL cap -560 -288 R0
SYMATTR InstName C1
SYMATTR Value 22µF
SYMBOL cap -448 -288 R0
SYMATTR InstName C2
SYMATTR Value 22µF
SYMBOL cap -768 -240 R90
WINDOW 0 0 32 VBottom 2
WINDOW 3 32 32 VTop 2
SYMATTR InstName C3
SYMATTR Value 100nF
SYMBOL res 128 64 R0
SYMATTR InstName R1
SYMATTR Value 1k
SYMBOL pmos -192 -96 R180
SYMATTR InstName M3
SYMATTR Value FDS6875
SYMBOL nmos 48 -32 M0
SYMATTR InstName M1
SYMATTR Value Si1555DL_N
SYMBOL res -256 -32 R0
SYMATTR InstName R2
SYMATTR Value 1R
SYMBOL voltage -1056 -160 R0
WINDOW 123 0 0 Left 0
WINDOW 39 0 0 Left 0
SYMATTR InstName V4
SYMATTR Value PULSE(0 5 0 1n 1n 100u 200u 10000)
SYMBOL voltage 320 96 R0
WINDOW 123 0 0 Left 0
WINDOW 39 0 0 Left 0
SYMATTR InstName V5
SYMATTR Value PULSE(0 5 200m 1n 1n 10m 20m 1)
TEXT -656 40 Left 2 !.tran 0 1 0
