Version 4
SHEET 1 880 680
WIRE -352 -48 -544 -48
WIRE -544 48 -544 -48
WIRE 16 128 16 80
WIRE 128 128 128 80
WIRE 256 128 256 80
WIRE -352 176 -352 -48
WIRE -544 192 -544 128
WIRE -544 192 -688 192
WIRE -400 192 -544 192
WIRE 16 256 16 208
WIRE 128 256 128 208
WIRE 128 256 16 256
WIRE 256 256 256 208
WIRE 256 256 128 256
WIRE -688 304 -688 192
WIRE 128 304 128 256
WIRE -352 352 -352 272
WIRE -272 352 -352 352
WIRE -832 384 -848 384
WIRE -736 384 -832 384
WIRE -352 384 -352 352
WIRE -848 432 -848 384
WIRE -688 448 -688 400
WIRE -352 480 -352 448
WIRE -272 480 -272 352
WIRE -848 544 -848 512
WIRE -272 608 -272 560
FLAG 16 80 3.3V
FLAG 128 80 5V
FLAG 256 80 10V
FLAG 128 304 0
FLAG -352 -48 10V
FLAG -352 480 3.3V
FLAG -272 608 0
FLAG -688 448 0
FLAG -848 544 0
FLAG -832 384 5V
SYMBOL voltage 16 112 R0
WINDOW 123 0 0 Left 0
WINDOW 39 0 0 Left 0
SYMATTR InstName V1
SYMATTR Value 3.3
SYMBOL voltage 128 112 R0
WINDOW 123 0 0 Left 0
WINDOW 39 0 0 Left 0
SYMATTR InstName V2
SYMATTR Value 5
SYMBOL voltage 256 112 R0
WINDOW 123 0 0 Left 0
WINDOW 39 0 0 Left 0
SYMATTR InstName V3
SYMATTR Value 10
SYMBOL pmos -400 272 M180
SYMATTR InstName M1
SYMATTR Value Si1555DL_P
SYMBOL res -560 32 R0
SYMATTR InstName R1
SYMATTR Value 1k
SYMBOL schottky -336 448 R180
WINDOW 0 24 64 Left 2
WINDOW 3 24 0 Left 2
SYMATTR InstName D1
SYMATTR Value BAT54
SYMATTR Description Diode
SYMATTR Type diode
SYMBOL res -288 464 R0
SYMATTR InstName R2
SYMATTR Value 1R
SYMBOL nmos -736 304 R0
SYMATTR InstName M2
SYMATTR Value BSC42DN25NS3
SYMBOL res -864 416 R0
SYMATTR InstName R3
SYMATTR Value 1k
TEXT -672 584 Left 2 !.tran 0 0.1 0
