Version 4
SHEET 1 880 680
WIRE 560 -272 560 -352
WIRE 704 -272 704 -352
WIRE 208 -160 208 -176
WIRE 208 -160 -304 -160
WIRE 560 -144 560 -192
WIRE 704 -144 704 -192
WIRE 704 -144 560 -144
WIRE 560 -112 560 -144
WIRE 64 -96 -96 -96
WIRE 208 -96 208 -160
WIRE 208 -96 144 -96
WIRE -144 -80 -208 -80
WIRE -304 16 -304 -160
WIRE 208 48 208 -96
WIRE -96 64 -96 0
WIRE 32 64 -96 64
WIRE 160 64 112 64
WIRE -96 112 -96 64
WIRE -208 192 -208 -80
WIRE -144 192 -208 192
WIRE 208 208 208 144
WIRE 336 208 208 208
WIRE 512 208 416 208
WIRE 672 208 512 208
WIRE -304 224 -304 96
WIRE -512 256 -512 192
WIRE 208 272 208 208
WIRE 512 272 512 208
WIRE 672 272 672 208
WIRE -96 416 -96 208
WIRE 208 416 208 368
WIRE 208 416 -96 416
WIRE 512 416 512 336
WIRE 512 416 208 416
WIRE 672 416 672 352
WIRE 672 416 512 416
WIRE 512 480 512 416
FLAG 560 -112 0
FLAG 560 -352 16V
FLAG 208 -176 16V
FLAG 512 480 0
FLAG 704 -352 3.3V
FLAG 672 208 Vout
FLAG -512 256 0
SYMBOL pmos 160 144 M180
SYMATTR InstName M2
SYMATTR Value AONR21307
SYMBOL ind 320 224 R270
WINDOW 0 32 56 VTop 2
WINDOW 3 5 56 VBottom 2
SYMATTR InstName L1
SYMATTR Value 10µH
SYMBOL cap 496 272 R0
SYMATTR InstName C1
SYMATTR Value 100µF
SYMATTR SpiceLine V=25
SYMBOL res 656 256 R0
SYMATTR InstName R1
SYMATTR Value 100R
SYMBOL voltage 560 -288 R0
WINDOW 123 0 0 Left 0
WINDOW 39 0 0 Left 0
SYMATTR InstName V1
SYMATTR Value 16
SYMBOL nmos 160 272 R0
SYMATTR InstName M1
SYMATTR Value AON6236
SYMBOL voltage 704 -288 R0
WINDOW 123 0 0 Left 0
WINDOW 39 0 0 Left 0
SYMATTR InstName V2
SYMATTR Value 3.3
SYMBOL voltage -512 96 M0
WINDOW 123 0 0 Left 0
WINDOW 39 0 0 Left 0
SYMATTR InstName V3
SYMATTR Value PULSE(0 3.3 0 1n 1n 1u 2u 1000)
SYMBOL res 160 -112 R90
WINDOW 0 0 56 VBottom 2
WINDOW 3 32 56 VTop 2
SYMATTR InstName R3
SYMATTR Value 100R
SYMBOL res 128 48 R90
WINDOW 0 0 56 VBottom 2
WINDOW 3 32 56 VTop 2
SYMATTR InstName R4
SYMATTR Value 100R
SYMBOL pmos -144 0 M180
SYMATTR InstName M3
SYMATTR Value BSS84
SYMBOL nmos -144 112 R0
SYMATTR InstName M4
SYMATTR Value BSS123
SYMBOL npn -368 224 R0
SYMATTR InstName Q1
SYMATTR Value 2N3904
SYMBOL res -288 112 R180
WINDOW 0 36 76 Left 2
WINDOW 3 36 40 Left 2
SYMATTR InstName R2
SYMATTR Value 100R
TEXT 464 176 Left 2 ;fc = 1/(pi*sqrt(L*C))
TEXT 12 504 Left 2 !.tran 0 0.003 0
